Info: SIMULATION PARAMETERS:
Info: TIMESTEP               2
Info: NUMBER OF STEPS        0
Info: STEPS PER CYCLE        10
Info: PERIODIC CELL BASIS 1  47.4222 0 0
Info: PERIODIC CELL BASIS 2  0 47.4222 0
Info: PERIODIC CELL BASIS 3  0 0 68.333
Info: PERIODIC CELL CENTER   0 0 0
Info: WRAPPING WATERS AROUND PERIODIC BOUNDARIES ON OUTPUT.
Info: WRAPPING ALL CLUSTERS AROUND PERIODIC BOUNDARIES ON OUTPUT.
Info: FIRST LDB TIMESTEP     50
Info: LAST LDB TIMESTEP     -1
Info: HOM BACKGROUND SCALING 1
Info: PME BACKGROUND SCALING 1
Info: MIN ATOMS PER PATCH    40
Info: INITIAL TEMPERATURE    10
Info: CENTER OF MASS MOVING INITIALLY? NO
Info: REMOVING CENTER OF MASS DRIFT DURING SIMULATION
Info: DIELECTRIC             1
Info: EXCLUDE                SCALED ONE-FOUR
Info: 1-4 ELECTROSTATICS SCALED BY 1
Info: MODIFIED 1-4 VDW PARAMETERS WILL BE USED
Info: DCD FILENAME           NVT.dcd
Info: DCD FREQUENCY          5000
Info: DCD FIRST STEP         5000
Info: DCD FILE WILL CONTAIN UNIT CELL DATA
Info: XST FILENAME           NVT.xst
Info: XST FREQUENCY          5000
Info: NO VELOCITY DCD OUTPUT
Info: NO FORCE DCD OUTPUT
Info: OUTPUT FILENAME        NVT
Info: BINARY OUTPUT FILES WILL BE USED
Info: RESTART FILENAME       NVT.restart
Info: RESTART FREQUENCY      50000
Info: BINARY RESTART FILES WILL BE USED
Info: SWITCHING ACTIVE
Info: SWITCHING ON           10
Info: SWITCHING OFF          12
Info: PAIRLIST DISTANCE      14
Info: PAIRLIST SHRINK RATE   0.01
Info: PAIRLIST GROW RATE     0.01
Info: PAIRLIST TRIGGER       0.3
Info: PAIRLISTS PER CYCLE    2
Info: PAIRLISTS ENABLED
Info: MARGIN                 0
Info: HYDROGEN GROUP CUTOFF  2.5
Info: PATCH DIMENSION        16.5
Info: ENERGY OUTPUT STEPS    5000
Info: CROSSTERM ENERGY INCLUDED IN DIHEDRAL
Info: TIMING OUTPUT STEPS    50000
Info: PRESSURE OUTPUT STEPS  5000
Info: LANGEVIN DYNAMICS ACTIVE
Info: LANGEVIN TEMPERATURE   10
Info: LANGEVIN USING BBK INTEGRATOR
Info: LANGEVIN DAMPING COEFFICIENT IS 1 INVERSE PS
Info: LANGEVIN DYNAMICS NOT APPLIED TO HYDROGENS
Info: PARTICLE MESH EWALD (PME) ACTIVE
Info: PME TOLERANCE               1e-06
Info: PME EWALD COEFFICIENT       0.257952
Info: PME INTERPOLATION ORDER     4
Info: PME GRID DIMENSIONS         48 48 72
Info: PME MAXIMUM GRID SPACING    1
Info: FULL ELECTROSTATIC EVALUATION FREQUENCY      2
Info: USING VERLET I (r-RESPA) MTS SCHEME.
Info: C1 SPLITTING OF LONG RANGE ELECTROSTATICS
Info: PLACING ATOMS IN PATCHES BY HYDROGEN GROUPS
Info: RIGID BONDS TO HYDROGEN : ALL
Info:         ERROR TOLERANCE : 1e-08
Info:          MAX ITERATIONS : 100
Info: RIGID WATER USING SETTLE ALGORITHM
Info: RANDOM NUMBER SEED     1714990248
Info: USE HYDROGEN BONDS?    NO
Info: COORDINATE PDB         ../input/initial_coordinates.pdb
Info: STRUCTURE FILE         ../input/dppc_water.psf
Info: PARAMETER file: CHARMM format!
Info: PARAMETERS             ../input/par_all36_lipid.prm
Info: PARAMETERS             ../input/par_water_ions.inp
Info: USING ARITHMETIC MEAN TO COMBINE L-J SIGMA PARAMETERS
Info: SUMMARY OF PARAMETERS:
Info: 53 BONDS
Info: 132 ANGLES
Info: 180 DIHEDRAL
Info: 4 IMPROPER
Info: 0 CROSSTERM
Info: 44 VDW
Info: 2 VDW_PAIRS
Info: 0 NBTHOLE_PAIRS
Info: STRUCTURE SUMMARY:
Info: 15927 ATOMS
Info: 13666 BONDS
Info: 20189 ANGLES
Info: 25128 DIHEDRALS
Info: 144 IMPROPERS
Info: 0 CROSSTERMS
Info: 0 EXCLUSIONS
Info: 12327 RIGID BONDS
Info: 35454 DEGREES OF FREEDOM
Info: 5789 HYDROGEN GROUPS
Info: 4 ATOMS IN LARGEST HYDROGEN GROUP
Info: 5789 MIGRATION GROUPS
Info: 4 ATOMS IN LARGEST MIGRATION GROUP
Info: TOTAL MASS = 92285.8 amu
Info: TOTAL CHARGE = 3.75509e-06 e
Info: MASS DENSITY = 0.997242 g/cm^3
Info: ATOM DENSITY = 0.103643 atoms/A^3
Info: ADDED 58983 IMPLICIT EXCLUSIONS
Info: NONBONDED TABLE R-SQUARED SPACING: 0.0625
Info: NONBONDED TABLE SIZE: 769 POINTS
Info: REMOVING COM VELOCITY 0.0189967 0.0219583 -0.000628728
TCL: Running for 500000 steps
ETITLE: TS BOND ANGLE DIHED IMPRP ELECT VDW BOUNDARY MISC KINETIC TOTAL TEMP POTENTIAL TOTAL3 TEMPAVG PRESSURE GPRESSURE VOLUME PRESSAVG GPRESSAVG
ENERGY: 0 974.2161 5894.6920 3507.1790 39.0714 -30288.6538 -1486.9946 0.0000 0.0000 356.7758 -21003.7141 10.1279 -21360.4899 -20912.0784 10.1279 -1974.8192 -1996.1684 153671.6957 -1974.8192 -1996.1684
ENERGY: 70000 114.3073 1293.4789 2818.3343 5.4220 -38185.3282 -435.7426 0.0000 0.0000 352.5002 -34037.0279 10.0066 -34389.5282 -34033.9365 9.9707 -2684.9981 -2672.4012 153671.6957 -2586.0485 -2586.0468
ENERGY: 135000 115.4674 1299.9235 2819.5248 5.6017 -38215.2472 -422.7467 0.0000 0.0000 354.7501 -34042.7265 10.0704 -34397.4766 -34039.6800 9.9882 -2502.8268 -2491.3164 153671.6957 -2502.0920 -2502.0918
ENERGY: 205000 112.0210 1305.0503 2823.8555 5.1066 -38289.3522 -379.1721 0.0000 0.0000 350.8202 -34071.6707 9.9589 -34422.4909 -34068.7380 9.9977 -2347.6064 -2333.9597 153671.6957 -2359.5678 -2359.5746
ENERGY: 270000 114.3814 1293.6018 2828.9386 5.8450 -38283.2576 -384.8097 0.0000 0.0000 352.3465 -34072.9539 10.0022 -34425.3004 -34069.8714 9.9993 -2365.5294 -2345.8400 153671.6957 -2339.1181 -2339.1149
ENERGY: 340000 112.6566 1297.8817 2830.8082 6.0276 -38287.8763 -390.5383 0.0000 0.0000 351.9012 -34079.1394 9.9895 -34431.0406 -34076.1897 10.0098 -2463.4761 -2448.1533 153671.6957 -2357.8115 -2357.8190
